<?xml version="1.0" encoding="UTF-8"?>

<vehicleDefinitions xmlns="http://www.matsim.org/files/dtd"
					xmlns:xsi="http://www.w3.org/2001/XMLSchema-instance"
					xsi:schemaLocation="http://www.matsim.org/files/dtd http://www.matsim.org/files/dtd/vehicleDefinitions_v2.0.xsd">
	<vehicleType id="car_average">
		<length meter="7.5"/>
		<width meter="1.0"/>
		<engineInformation>
			<attributes>
				<attribute name="HbefaVehicleCategory" class="java.lang.String">PASSENGER_CAR</attribute>
				<attribute name="HbefaTechnology" class="java.lang.String">average</attribute>
				<attribute name="HbefaSizeClass" class="java.lang.String">average</attribute>
				<attribute name="HbefaEmissionsConcept" class="java.lang.String">average</attribute>
			</attributes>
		</engineInformation>
	</vehicleType>

	<vehicleType id="car_petrol">
		<length meter="7.5"/>
		<width meter="1.0"/>
		<engineInformation>
			<attributes>
				<attribute name="HbefaVehicleCategory" class="java.lang.String">PASSENGER_CAR</attribute>
				<attribute name="HbefaTechnology" class="java.lang.String">petrol (4S)</attribute>
				<attribute name="HbefaSizeClass" class="java.lang.String">&gt;=2L</attribute>
				<attribute name="HbefaEmissionsConcept" class="java.lang.String">PC-P-Euro-1</attribute>
			</attributes>
		</engineInformation>
	</vehicleType>

	<vehicleType id="car_diesel">
		<length meter="7.5"/>
		<width meter="1.0"/>
		<engineInformation>
			<attributes>
				<attribute name="HbefaVehicleCategory" class="java.lang.String">PASSENGER_CAR</attribute>
				<attribute name="HbefaTechnology" class="java.lang.String">diesel</attribute>
				<attribute name="HbefaSizeClass" class="java.lang.String">&lt;1,4L</attribute>
				<attribute name="HbefaEmissionsConcept" class="java.lang.String">PC-D-Euro-3</attribute>
			</attributes>
		</engineInformation>
	</vehicleType>

	<vehicle id="1000264" type="car_average"/>
	<vehicle id="1000265" type="car_average"/>
	<vehicle id="1000266" type="car_average"/>
	<vehicle id="1000267" type="car_average"/>
	<vehicle id="1000268" type="car_average"/>
	<vehicle id="1000269" type="car_average"/>
	<vehicle id="1001227" type="car_average"/>
	<vehicle id="1001228" type="car_average"/>
	<vehicle id="1001229" type="car_average"/>
	<vehicle id="1001230" type="car_average"/>
	<vehicle id="1001771" type="car_average"/>
	<vehicle id="1001772" type="car_average"/>
	<vehicle id="1002407" type="car_average"/>
	<vehicle id="1002408" type="car_average"/>
	<vehicle id="1002942" type="car_average"/>
	<vehicle id="1002943" type="car_average"/>
	<vehicle id="1002944" type="car_average"/>
	<vehicle id="1003542" type="car_average"/>
	<vehicle id="1003543" type="car_average"/>
	<vehicle id="1003544" type="car_average"/>
	<vehicle id="1004108" type="car_average"/>
	<vehicle id="1004109" type="car_average"/>
	<vehicle id="1004110" type="car_average"/>
	<vehicle id="1004692" type="car_average"/>
	<vehicle id="1004693" type="car_average"/>
	<vehicle id="1004694" type="car_average"/>
	<vehicle id="100478" type="car_average"/>
	<vehicle id="100479" type="car_average"/>
	<vehicle id="100480" type="car_average"/>
	<vehicle id="100481" type="car_average"/>
	<vehicle id="1005203" type="car_average"/>
	<vehicle id="1005204" type="car_average"/>
	<vehicle id="1005603" type="car_average"/>
	<vehicle id="1005604" type="car_average"/>
	<vehicle id="1006003" type="car_average"/>
	<vehicle id="1006004" type="car_average"/>
	<vehicle id="1006403" type="car_average"/>
	<vehicle id="1006404" type="car_average"/>
	<vehicle id="1006803" type="car_average"/>
	<vehicle id="1006804" type="car_average"/>
	<vehicle id="1007203" type="car_average"/>
	<vehicle id="1007204" type="car_average"/>
	<vehicle id="1007603" type="car_average"/>
	<vehicle id="1007604" type="car_average"/>
	<vehicle id="1008003" type="car_average"/>
	<vehicle id="1008004" type="car_average"/>
	<vehicle id="1008210" type="car_average"/>
	<vehicle id="1008410" type="car_average"/>
	<vehicle id="1008610" type="car_average"/>
	<vehicle id="1008810" type="car_average"/>
	<vehicle id="1009352" type="car_average"/>
	<vehicle id="1009353" type="car_average"/>
	<vehicle id="1009354" type="car_average"/>
	<vehicle id="1009355" type="car_average"/>
	<vehicle id="100954" type="car_average"/>
	<vehicle id="100955" type="car_average"/>
	<vehicle id="1010134" type="car_average"/>
	<vehicle id="1010135" type="car_average"/>
	<vehicle id="1011067" type="car_average"/>
	<vehicle id="1011068" type="car_average"/>
	<vehicle id="1011671" type="car_average"/>
	<vehicle id="1011672" type="car_average"/>
	<vehicle id="1011673" type="car_average"/>
	<vehicle id="1011674" type="car_average"/>
	<vehicle id="1012210" type="car_average"/>
	<vehicle id="1012211" type="car_average"/>
	<vehicle id="1012212" type="car_average"/>
	<vehicle id="1012788" type="car_average"/>
	<vehicle id="1012789" type="car_average"/>
	<vehicle id="1012790" type="car_average"/>
	<vehicle id="1013379" type="car_average"/>
	<vehicle id="1013380" type="car_average"/>
	<vehicle id="1013381" type="car_average"/>
	<vehicle id="1013839" type="car_average"/>
	<vehicle id="1013840" type="car_average"/>
	<vehicle id="1014239" type="car_average"/>
	<vehicle id="1014240" type="car_average"/>
	<vehicle id="1014639" type="car_average"/>
	<vehicle id="1014640" type="car_average"/>
	<vehicle id="1015039" type="car_average"/>
	<vehicle id="1015040" type="car_average"/>
	<vehicle id="101508" type="car_average"/>
	<vehicle id="101509" type="car_average"/>
	<vehicle id="101510" type="car_average"/>
	<vehicle id="1015437" type="car_average"/>
	<vehicle id="1015438" type="car_average"/>
	<vehicle id="1015692" type="car_average"/>
	<vehicle id="1015892" type="car_average"/>
	<vehicle id="1016092" type="car_average"/>
	<vehicle id="1016770" type="car_average"/>
	<vehicle id="1016771" type="car_average"/>
	<vehicle id="1016772" type="car_average"/>
	<vehicle id="1016773" type="car_average"/>
	<vehicle id="1017606" type="car_average"/>
	<vehicle id="1017607" type="car_average"/>
	<vehicle id="1018518" type="car_average"/>
	<vehicle id="1018519" type="car_average"/>
	<vehicle id="1018520" type="car_average"/>
	<vehicle id="1018521" type="car_average"/>
	<vehicle id="1018522" type="car_average"/>
	<vehicle id="1019176" type="car_average"/>
	<vehicle id="1019177" type="car_average"/>
	<vehicle id="1019776" type="car_average"/>
	<vehicle id="1019777" type="car_average"/>
	<vehicle id="1020348" type="car_average"/>
	<vehicle id="1020349" type="car_average"/>
	<vehicle id="1020350" type="car_average"/>
	<vehicle id="1020920" type="car_average"/>
	<vehicle id="1020921" type="car_average"/>
	<vehicle id="1020922" type="car_average"/>
	<vehicle id="102108" type="car_average"/>
	<vehicle id="102109" type="car_average"/>
	<vehicle id="102110" type="car_average"/>
	<vehicle id="1021508" type="car_average"/>
	<vehicle id="1021509" type="car_average"/>
	<vehicle id="1021510" type="car_average"/>
	<vehicle id="1022030" type="car_average"/>
	<vehicle id="1022031" type="car_average"/>
	<vehicle id="1022430" type="car_average"/>
	<vehicle id="1022431" type="car_average"/>
	<vehicle id="1022830" type="car_average"/>
	<vehicle id="1022831" type="car_average"/>
	<vehicle id="1023230" type="car_average"/>
	<vehicle id="1023231" type="car_average"/>
	<vehicle id="1023630" type="car_average"/>
	<vehicle id="1024030" type="car_average"/>
	<vehicle id="1024031" type="car_average"/>
	<vehicle id="1024369" type="car_average"/>
	<vehicle id="1024569" type="car_average"/>
	<vehicle id="1024769" type="car_average"/>
	<vehicle id="1024969" type="car_average"/>
	<vehicle id="1025605" type="car_average"/>
	<vehicle id="1025606" type="car_average"/>
	<vehicle id="1025607" type="car_average"/>
	<vehicle id="1025608" type="car_average"/>
	<vehicle id="1026479" type="car_average"/>
	<vehicle id="1026480" type="car_average"/>
	<vehicle id="1026481" type="car_average"/>
	<vehicle id="1026482" type="car_average"/>
	<vehicle id="1026483" type="car_average"/>
	<vehicle id="1026484" type="car_average"/>
	<vehicle id="1026485" type="car_average"/>
	<vehicle id="102708" type="car_average"/>
	<vehicle id="102709" type="car_average"/>
	<vehicle id="102710" type="car_average"/>
	<vehicle id="1027203" type="car_average"/>
	<vehicle id="1027204" type="car_average"/>
	<vehicle id="1028157" type="car_average"/>
	<vehicle id="1028158" type="car_average"/>
	<vehicle id="1028159" type="car_average"/>
	<vehicle id="1028160" type="car_average"/>
	<vehicle id="1028964" type="car_average"/>
	<vehicle id="1028965" type="car_average"/>
	<vehicle id="1029479" type="car_average"/>
	<vehicle id="1029480" type="car_average"/>
	<vehicle id="1029481" type="car_average"/>
	<vehicle id="1029482" type="car_average"/>
	<vehicle id="1030172" type="car_average"/>
	<vehicle id="1030173" type="car_average"/>
	<vehicle id="1030688" type="car_average"/>
	<vehicle id="1030689" type="car_average"/>
	<vehicle id="1030690" type="car_average"/>
	<vehicle id="1031288" type="car_average"/>
	<vehicle id="1031289" type="car_average"/>
	<vehicle id="1031290" type="car_average"/>
	<vehicle id="1031848" type="car_average"/>
	<vehicle id="1031849" type="car_average"/>
	<vehicle id="1031850" type="car_average"/>
	<vehicle id="1032436" type="car_average"/>
	<vehicle id="1032437" type="car_average"/>
	<vehicle id="1032438" type="car_average"/>
	<vehicle id="1033034" type="car_average"/>
	<vehicle id="1033035" type="car_average"/>
	<vehicle id="1033036" type="car_average"/>
	<vehicle id="103308" type="car_average"/>
	<vehicle id="103309" type="car_average"/>
	<vehicle id="103310" type="car_average"/>
	<vehicle id="1033516" type="car_average"/>
	<vehicle id="1033517" type="car_average"/>
	<vehicle id="1033916" type="car_average"/>
	<vehicle id="1033917" type="car_average"/>
	<vehicle id="10341" type="car_average"/>
	<vehicle id="10342" type="car_average"/>
	<vehicle id="10343" type="car_average"/>
	<vehicle id="1034316" type="car_average"/>
	<vehicle id="1034317" type="car_average"/>
	<vehicle id="1034716" type="car_average"/>
	<vehicle id="1034717" type="car_average"/>
	<vehicle id="1035116" type="car_average"/>
	<vehicle id="1035117" type="car_average"/>
	<vehicle id="1035516" type="car_average"/>
	<vehicle id="1035517" type="car_average"/>
	<vehicle id="1035916" type="car_average"/>
	<vehicle id="1035917" type="car_average"/>
	<vehicle id="1036316" type="car_average"/>
	<vehicle id="1036317" type="car_average"/>
	<vehicle id="1036716" type="car_average"/>
	<vehicle id="1036717" type="car_average"/>
	<vehicle id="1036952" type="car_average"/>
	<vehicle id="1037152" type="car_average"/>
	<vehicle id="1037352" type="car_average"/>
	<vehicle id="1037552" type="car_average"/>
	<vehicle id="1037752" type="car_average"/>
	<vehicle id="103834" type="car_average"/>
	<vehicle id="1038346" type="car_average"/>
	<vehicle id="1038347" type="car_average"/>
	<vehicle id="1038348" type="car_average"/>
	<vehicle id="1038349" type="car_average"/>
	<vehicle id="103835" type="car_average"/>
	<vehicle id="103836" type="car_average"/>
	<vehicle id="1039210" type="car_average"/>
	<vehicle id="1039211" type="car_average"/>
	<vehicle id="1040071" type="car_average"/>
	<vehicle id="1040072" type="car_average"/>
	<vehicle id="1040073" type="car_average"/>
	<vehicle id="1040074" type="car_average"/>
	<vehicle id="1040075" type="car_average"/>
	<vehicle id="1040720" type="car_average"/>
	<vehicle id="1040721" type="car_average"/>
	<vehicle id="1041318" type="car_average"/>
	<vehicle id="1041888" type="car_average"/>
	<vehicle id="1041889" type="car_average"/>
	<vehicle id="1041890" type="car_average"/>
	<vehicle id="1042462" type="car_average"/>
	<vehicle id="1042463" type="car_average"/>
	<vehicle id="1042464" type="car_average"/>
	<vehicle id="1043047" type="car_average"/>
	<vehicle id="1043048" type="car_average"/>
	<vehicle id="1043049" type="car_average"/>
	<vehicle id="1043550" type="car_average"/>
	<vehicle id="1043551" type="car_average"/>
	<vehicle id="1043950" type="car_average"/>
	<vehicle id="1043951" type="car_average"/>
	<vehicle id="104432" type="car_average"/>
	<vehicle id="104433" type="car_average"/>
	<vehicle id="104434" type="car_average"/>
	<vehicle id="1044350" type="car_average"/>
	<vehicle id="1044351" type="car_average"/>
	<vehicle id="1044750" type="car_average"/>
	<vehicle id="1044751" type="car_average"/>
	<vehicle id="1045150" type="car_average"/>
	<vehicle id="1045151" type="car_average"/>
	<vehicle id="1045550" type="car_average"/>
	<vehicle id="1045551" type="car_average"/>
	<vehicle id="1045836" type="car_average"/>
	<vehicle id="1046036" type="car_average"/>
	<vehicle id="1046236" type="car_average"/>
	<vehicle id="1046491" type="car_average"/>
	<vehicle id="1046492" type="car_average"/>
	<vehicle id="1046493" type="car_average"/>
	<vehicle id="1046494" type="car_average"/>
	<vehicle id="1047291" type="car_average"/>
	<vehicle id="1047292" type="car_average"/>
	<vehicle id="1047293" type="car_average"/>
	<vehicle id="1047294" type="car_average"/>
	<vehicle id="1048189" type="car_average"/>
	<vehicle id="1048190" type="car_average"/>
	<vehicle id="1048191" type="car_average"/>
	<vehicle id="1048192" type="car_average"/>
	<vehicle id="1049032" type="car_average"/>
	<vehicle id="1049033" type="car_average"/>
	<vehicle id="1049034" type="car_average"/>
	<vehicle id="1049035" type="car_average"/>
	<vehicle id="1049036" type="car_average"/>
	<vehicle id="1049037" type="car_average"/>
	<vehicle id="1049834" type="car_average"/>
	<vehicle id="1049835" type="car_average"/>
	<vehicle id="105010" type="car_average"/>
	<vehicle id="105011" type="car_average"/>
	<vehicle id="105012" type="car_average"/>
	<vehicle id="1050313" type="car_average"/>
	<vehicle id="1050314" type="car_average"/>
	<vehicle id="1050315" type="car_average"/>
	<vehicle id="1050316" type="car_average"/>
	<vehicle id="1050947" type="car_average"/>
	<vehicle id="1050948" type="car_average"/>
	<vehicle id="1051531" type="car_average"/>
	<vehicle id="1051532" type="car_average"/>
	<vehicle id="1051533" type="car_average"/>
	<vehicle id="1052131" type="car_average"/>
	<vehicle id="1052132" type="car_average"/>
	<vehicle id="1052133" type="car_average"/>
	<vehicle id="1052687" type="car_average"/>
	<vehicle id="1052688" type="car_average"/>
	<vehicle id="1052689" type="car_average"/>
	<vehicle id="1053276" type="car_average"/>
	<vehicle id="1053277" type="car_average"/>
	<vehicle id="1053278" type="car_average"/>
	<vehicle id="1053763" type="car_average"/>
	<vehicle id="1053764" type="car_average"/>
	<vehicle id="1054163" type="car_average"/>
	<vehicle id="1054164" type="car_average"/>
	<vehicle id="1054563" type="car_average"/>
	<vehicle id="1054564" type="car_average"/>
	<vehicle id="1054963" type="car_average"/>
	<vehicle id="1054964" type="car_average"/>
	<vehicle id="1055363" type="car_average"/>
	<vehicle id="1055364" type="car_average"/>
	<vehicle id="1055763" type="car_average"/>
	<vehicle id="1055764" type="car_average"/>
	<vehicle id="105601" type="car_average"/>
	<vehicle id="105602" type="car_average"/>
	<vehicle id="105603" type="car_average"/>
	<vehicle id="1056163" type="car_average"/>
	<vehicle id="1056164" type="car_average"/>
	<vehicle id="1056563" type="car_average"/>
	<vehicle id="1056963" type="car_average"/>
	<vehicle id="1057163" type="car_average"/>
	<vehicle id="1057363" type="car_average"/>
	<vehicle id="1057879" type="car_average"/>
	<vehicle id="1057880" type="car_average"/>
	<vehicle id="1057881" type="car_average"/>
	<vehicle id="1057882" type="car_average"/>
	<vehicle id="1058683" type="car_average"/>
	<vehicle id="1058684" type="car_average"/>
	<vehicle id="1058685" type="car_average"/>
	<vehicle id="1058686" type="car_average"/>
	<vehicle id="1059611" type="car_average"/>
	<vehicle id="1059612" type="car_average"/>
	<vehicle id="1060286" type="car_average"/>
	<vehicle id="1060287" type="car_average"/>
	<vehicle id="1060288" type="car_average"/>
	<vehicle id="1060289" type="car_average"/>
	<vehicle id="1060290" type="car_average"/>
	<vehicle id="1060291" type="car_average"/>
	<vehicle id="1061329" type="car_average"/>
	<vehicle id="1061330" type="car_average"/>
	<vehicle id="1061921" type="car_average"/>
	<vehicle id="1061922" type="car_average"/>
	<vehicle id="106201" type="car_average"/>
	<vehicle id="106202" type="car_average"/>
	<vehicle id="106203" type="car_average"/>
	<vehicle id="1062489" type="car_average"/>
	<vehicle id="1062490" type="car_average"/>
	<vehicle id="1062491" type="car_average"/>
	<vehicle id="1062492" type="car_average"/>
	<vehicle id="1063078" type="car_average"/>
	<vehicle id="1063079" type="car_average"/>
	<vehicle id="1063666" type="car_average"/>
	<vehicle id="1063667" type="car_average"/>
	<vehicle id="1063668" type="car_average"/>
	<vehicle id="1064266" type="car_average"/>
	<vehicle id="1064267" type="car_average"/>
	<vehicle id="1064268" type="car_average"/>
	<vehicle id="1064824" type="car_average"/>
	<vehicle id="1064825" type="car_average"/>
	<vehicle id="1064826" type="car_average"/>
	<vehicle id="1065407" type="car_average"/>
	<vehicle id="1065408" type="car_average"/>
	<vehicle id="1065409" type="car_average"/>
	<vehicle id="1066001" type="car_average"/>
	<vehicle id="1066002" type="car_average"/>
	<vehicle id="1066003" type="car_average"/>
	<vehicle id="1066477" type="car_average"/>
	<vehicle id="1066478" type="car_average"/>
	<vehicle id="1066877" type="car_average"/>
	<vehicle id="1066878" type="car_average"/>
	<vehicle id="106711" type="car_average"/>
	<vehicle id="1067277" type="car_average"/>
	<vehicle id="1067278" type="car_average"/>
	<vehicle id="1067677" type="car_average"/>
	<vehicle id="1067678" type="car_average"/>
	<vehicle id="1068077" type="car_average"/>
	<vehicle id="1068078" type="car_average"/>
	<vehicle id="1068477" type="car_average"/>
	<vehicle id="1068478" type="car_average"/>
	<vehicle id="1068877" type="car_average"/>
	<vehicle id="1068878" type="car_average"/>
	<vehicle id="1069277" type="car_average"/>
	<vehicle id="1069278" type="car_average"/>
	<vehicle id="1069676" type="car_average"/>
	<vehicle id="1069677" type="car_average"/>
	<vehicle id="1070017" type="car_average"/>
	<vehicle id="1070217" type="car_average"/>
	<vehicle id="1070417" type="car_average"/>
	<vehicle id="1070617" type="car_average"/>
	<vehicle id="1070817" type="car_average"/>
	<vehicle id="107093" type="car_average"/>
	<vehicle id="107094" type="car_average"/>
	<vehicle id="1071017" type="car_average"/>
	<vehicle id="1071756" type="car_average"/>
	<vehicle id="1071757" type="car_average"/>
	<vehicle id="1071758" type="car_average"/>
	<vehicle id="1071759" type="car_average"/>
	<vehicle id="1072578" type="car_average"/>
	<vehicle id="1072579" type="car_average"/>
	<vehicle id="1073163" type="car_average"/>
	<vehicle id="1073164" type="car_average"/>
	<vehicle id="1073748" type="car_average"/>
	<vehicle id="1074328" type="car_average"/>
	<vehicle id="1074329" type="car_average"/>
	<vehicle id="1074330" type="car_average"/>
	<vehicle id="1074743" type="car_average"/>
	<vehicle id="1074744" type="car_average"/>
	<vehicle id="107493" type="car_average"/>
	<vehicle id="107494" type="car_average"/>
	<vehicle id="1075143" type="car_average"/>
	<vehicle id="1075144" type="car_average"/>
	<vehicle id="1075543" type="car_average"/>
	<vehicle id="1075544" type="car_average"/>
	<vehicle id="1075858" type="car_average"/>
	<vehicle id="1076058" type="car_average"/>
	<vehicle id="1076476" type="car_average"/>
	<vehicle id="1076477" type="car_average"/>
	<vehicle id="1076478" type="car_average"/>
	<vehicle id="1076479" type="car_average"/>
	<vehicle id="1077276" type="car_average"/>
	<vehicle id="1077277" type="car_average"/>
	<vehicle id="1077278" type="car_average"/>
	<vehicle id="1077279" type="car_average"/>
	<vehicle id="1078082" type="car_average"/>
	<vehicle id="1078083" type="car_average"/>
	<vehicle id="1078084" type="car_average"/>
	<vehicle id="1078085" type="car_average"/>
	<vehicle id="107893" type="car_average"/>
	<vehicle id="107894" type="car_average"/>
	<vehicle id="1079155" type="car_average"/>
	<vehicle id="1079156" type="car_average"/>
	<vehicle id="1079157" type="car_average"/>
	<vehicle id="1079744" type="car_average"/>
	<vehicle id="1079745" type="car_average"/>
	<vehicle id="1080191" type="car_average"/>
	<vehicle id="1080192" type="car_average"/>
	<vehicle id="1081331" type="car_average"/>
	<vehicle id="1081332" type="car_average"/>
	<vehicle id="1081333" type="car_average"/>
	<vehicle id="1081334" type="car_average"/>
	<vehicle id="1081335" type="car_average"/>
	<vehicle id="1082314" type="car_average"/>
	<vehicle id="1082315" type="car_average"/>
	<vehicle id="1082316" type="car_average"/>
	<vehicle id="1082317" type="car_average"/>
	<vehicle id="1082318" type="car_average"/>
	<vehicle id="108293" type="car_average"/>
	<vehicle id="108294" type="car_average"/>
	<vehicle id="1082976" type="car_average"/>
	<vehicle id="1082977" type="car_average"/>
	<vehicle id="1082978" type="car_average"/>
	<vehicle id="1083545" type="car_average"/>
	<vehicle id="1083546" type="car_average"/>
	<vehicle id="1084149" type="car_average"/>
	<vehicle id="1084150" type="car_average"/>
	<vehicle id="1084151" type="car_average"/>
	<vehicle id="1084152" type="car_average"/>
	<vehicle id="1084810" type="car_average"/>
	<vehicle id="1084811" type="car_average"/>
	<vehicle id="1085290" type="car_average"/>
	<vehicle id="1085291" type="car_average"/>
	<vehicle id="1085292" type="car_average"/>
	<vehicle id="1085890" type="car_average"/>
	<vehicle id="1085891" type="car_average"/>
	<vehicle id="1085892" type="car_average"/>
	<vehicle id="1086490" type="car_average"/>
	<vehicle id="1086491" type="car_average"/>
	<vehicle id="1086492" type="car_average"/>
	<vehicle id="108693" type="car_average"/>
	<vehicle id="108694" type="car_average"/>
	<vehicle id="1087090" type="car_average"/>
	<vehicle id="1087091" type="car_average"/>
	<vehicle id="1087092" type="car_average"/>
	<vehicle id="1087622" type="car_average"/>
	<vehicle id="1087623" type="car_average"/>
	<vehicle id="1087624" type="car_average"/>
	<vehicle id="1088220" type="car_average"/>
	<vehicle id="1088221" type="car_average"/>
	<vehicle id="1088222" type="car_average"/>
	<vehicle id="1088795" type="car_average"/>
	<vehicle id="1088796" type="car_average"/>
	<vehicle id="1089394" type="car_average"/>
	<vehicle id="1089395" type="car_average"/>
	<vehicle id="1089396" type="car_average"/>
	<vehicle id="1089994" type="car_average"/>
	<vehicle id="1089995" type="car_average"/>
	<vehicle id="1089996" type="car_average"/>
	<vehicle id="1090367" type="car_average"/>
	<vehicle id="1090767" type="car_average"/>
	<vehicle id="1090768" type="car_average"/>
	<vehicle id="109093" type="car_average"/>
	<vehicle id="109094" type="car_average"/>
	<vehicle id="1091167" type="car_average"/>
	<vehicle id="1091168" type="car_average"/>
	<vehicle id="1091567" type="car_average"/>
	<vehicle id="1091568" type="car_average"/>
	<vehicle id="1091967" type="car_average"/>
	<vehicle id="1091968" type="car_average"/>
	<vehicle id="1092367" type="car_average"/>
	<vehicle id="1092368" type="car_average"/>
	<vehicle id="1092767" type="car_average"/>
	<vehicle id="1092768" type="car_average"/>
	<vehicle id="1093167" type="car_average"/>
	<vehicle id="1093567" type="car_average"/>
	<vehicle id="1093568" type="car_average"/>
	<vehicle id="1093967" type="car_average"/>
	<vehicle id="1093968" type="car_average"/>
	<vehicle id="10941" type="car_average"/>
	<vehicle id="10943" type="car_average"/>
	<vehicle id="1094367" type="car_average"/>
	<vehicle id="1094368" type="car_average"/>
	<vehicle id="1094767" type="car_average"/>
	<vehicle id="1094768" type="car_average"/>
	<vehicle id="109493" type="car_average"/>
	<vehicle id="109494" type="car_average"/>
	<vehicle id="1095167" type="car_average"/>
	<vehicle id="1095168" type="car_average"/>
	<vehicle id="1095567" type="car_average"/>
	<vehicle id="1095873" type="car_average"/>
	<vehicle id="1096073" type="car_average"/>
	<vehicle id="1096273" type="car_average"/>
	<vehicle id="1096473" type="car_average"/>
	<vehicle id="1096673" type="car_average"/>
	<vehicle id="1096873" type="car_average"/>
	<vehicle id="1097073" type="car_average"/>
	<vehicle id="1097273" type="car_average"/>
	<vehicle id="1097473" type="car_average"/>
	<vehicle id="1098178" type="car_average"/>
	<vehicle id="1098179" type="car_average"/>
	<vehicle id="1098180" type="car_average"/>
	<vehicle id="1098181" type="car_average"/>
	<vehicle id="109893" type="car_average"/>
	<vehicle id="109894" type="car_average"/>
	<vehicle id="1099147" type="car_average"/>
	<vehicle id="1099148" type="car_average"/>
	<vehicle id="1099149" type="car_average"/>
	<vehicle id="1099150" type="car_average"/>
	<vehicle id="1099716" type="car_average"/>
	<vehicle id="1099717" type="car_average"/>
	<vehicle id="1099718" type="car_average"/>
	<vehicle id="1099719" type="car_average"/>
	<vehicle id="1099720" type="car_average"/>
	<vehicle id="1099721" type="car_average"/>
	<vehicle id="1100808" type="car_average"/>
	<vehicle id="1100809" type="car_average"/>
	<vehicle id="1100810" type="car_average"/>
	<vehicle id="1100811" type="car_average"/>
	<vehicle id="1100812" type="car_average"/>
	<vehicle id="1101428" type="car_average"/>
	<vehicle id="1101429" type="car_average"/>
	<vehicle id="1101975" type="car_average"/>
	<vehicle id="1101976" type="car_average"/>
	<vehicle id="1101977" type="car_average"/>
	<vehicle id="1101978" type="car_average"/>
	<vehicle id="1102553" type="car_average"/>
	<vehicle id="1102554" type="car_average"/>
	<vehicle id="110293" type="car_average"/>
	<vehicle id="110294" type="car_average"/>
	<vehicle id="1103155" type="car_average"/>
	<vehicle id="1103156" type="car_average"/>
	<vehicle id="1103157" type="car_average"/>
	<vehicle id="1103755" type="car_average"/>
	<vehicle id="1103756" type="car_average"/>
	<vehicle id="1103757" type="car_average"/>
	<vehicle id="1104317" type="car_average"/>
	<vehicle id="1104318" type="car_average"/>
	<vehicle id="1104319" type="car_average"/>
	<vehicle id="1104902" type="car_average"/>
	<vehicle id="1104903" type="car_average"/>
	<vehicle id="1104904" type="car_average"/>
	<vehicle id="1105472" type="car_average"/>
	<vehicle id="1105854" type="car_average"/>
	<vehicle id="1105855" type="car_average"/>
	<vehicle id="1106254" type="car_average"/>
	<vehicle id="1106255" type="car_average"/>
	<vehicle id="1106654" type="car_average"/>
	<vehicle id="1106655" type="car_average"/>
	<vehicle id="110693" type="car_average"/>
	<vehicle id="110694" type="car_average"/>
	<vehicle id="1107054" type="car_average"/>
	<vehicle id="1107055" type="car_average"/>
	<vehicle id="1107454" type="car_average"/>
	<vehicle id="1107455" type="car_average"/>
	<vehicle id="1107854" type="car_average"/>
	<vehicle id="1107855" type="car_average"/>
	<vehicle id="1108254" type="car_average"/>
	<vehicle id="1108255" type="car_average"/>
	<vehicle id="1108653" type="car_average"/>
	<vehicle id="1108654" type="car_average"/>
	<vehicle id="1108881" type="car_average"/>
	<vehicle id="1109081" type="car_average"/>
	<vehicle id="1109281" type="car_average"/>
	<vehicle id="1109481" type="car_average"/>
	<vehicle id="1109681" type="car_average"/>
	<vehicle id="1110434" type="car_average"/>
	<vehicle id="1110435" type="car_average"/>
	<vehicle id="1110436" type="car_average"/>
	<vehicle id="1110437" type="car_average"/>
	<vehicle id="111093" type="car_average"/>
	<vehicle id="111094" type="car_average"/>
	<vehicle id="1111401" type="car_average"/>
	<vehicle id="1111402" type="car_average"/>
	<vehicle id="1111403" type="car_average"/>
	<vehicle id="1111981" type="car_average"/>
	<vehicle id="1111982" type="car_average"/>
	<vehicle id="1111983" type="car_average"/>
	<vehicle id="1111984" type="car_average"/>
	<vehicle id="1111985" type="car_average"/>
	<vehicle id="1111986" type="car_average"/>
	<vehicle id="1113070" type="car_average"/>
	<vehicle id="1113071" type="car_average"/>
	<vehicle id="1113072" type="car_average"/>
	<vehicle id="1113073" type="car_average"/>
	<vehicle id="1113074" type="car_average"/>
	<vehicle id="1113703" type="car_average"/>
	<vehicle id="1113704" type="car_average"/>
	<vehicle id="1114248" type="car_average"/>
	<vehicle id="1114249" type="car_average"/>
	<vehicle id="1114250" type="car_average"/>
	<vehicle id="1114251" type="car_average"/>
	<vehicle id="1114829" type="car_average"/>
	<vehicle id="1114830" type="car_average"/>
	<vehicle id="111493" type="car_average"/>
	<vehicle id="111494" type="car_average"/>
	<vehicle id="1115425" type="car_average"/>
	<vehicle id="1115426" type="car_average"/>
	<vehicle id="1115427" type="car_average"/>
	<vehicle id="1116025" type="car_average"/>
	<vehicle id="1116026" type="car_average"/>
	<vehicle id="1116027" type="car_average"/>
	<vehicle id="1116587" type="car_average"/>
	<vehicle id="1116588" type="car_average"/>
	<vehicle id="1116589" type="car_average"/>
	<vehicle id="1117167" type="car_average"/>
	<vehicle id="1117168" type="car_average"/>
	<vehicle id="1117169" type="car_average"/>
	<vehicle id="1117765" type="car_average"/>
	<vehicle id="1118140" type="car_average"/>
	<vehicle id="1118141" type="car_average"/>
	<vehicle id="1118540" type="car_average"/>
	<vehicle id="1118541" type="car_average"/>
	<vehicle id="111893" type="car_average"/>
	<vehicle id="111894" type="car_average"/>
	<vehicle id="1118940" type="car_average"/>
	<vehicle id="1118941" type="car_average"/>
	<vehicle id="1119340" type="car_average"/>
	<vehicle id="1119341" type="car_average"/>
	<vehicle id="1119740" type="car_average"/>
	<vehicle id="1119741" type="car_average"/>
	<vehicle id="1120140" type="car_average"/>
	<vehicle id="1120141" type="car_average"/>
	<vehicle id="1120540" type="car_average"/>
	<vehicle id="1120541" type="car_average"/>
	<vehicle id="1120939" type="car_average"/>